FoamFile { version 2.0; format ascii; class dictionary; object fvSchemes; }

ddtSchemes 
{ 
    default Euler; // or backward for more accuracy if stable
}  
gradSchemes
{
    default         Gauss linear;
    grad(U)         cellLimited Gauss linear 1; 
    grad(k)         cellLimited Gauss linear 1;
    grad(omega)     cellLimited Gauss linear 1;
}
divSchemes
{
    default         none;
    div(phi,U)      Gauss linearUpwind grad(U); // Or upwind
    div(phi,k)      Gauss upwind;               
    div(phi,omega)  Gauss upwind;               
    
    // turbulent diffusion
    div((nuEff*dev2(T(grad(U))))) Gauss linear;
}
laplacianSchemes 
{ 
    default Gauss linear corrected;  
} 
interpolationSchemes 
{ 
    default linear; 
} 
snGradSchemes 
{ 
    default orthogonal; 
} 
wallDist
{
    method meshWave; // accuracy of wall distance in complex geometries, more computationally expensive
}