FoamFile { version 2.0; format ascii; class dictionary; object transportProperties; }

transportModel  Newtonian;
nu              [0 2 -1 0 0 0 0] 0.000001; // Viscosité cinématique de l'eau à 20°C (en m²/s)
