FoamFile
{
    version     2.0;
    format      ascii;
    class       volVectorField;
    object      U;
}

dimensions      [0 2 -1 0 0 0 0];
internalField   uniform 0;

boundaryField
{
    inlet
    {
        type            calculated;
        value           uniform 0;
    }
    outlet
    {
        type            calculated;
        value           uniform 0;
    }
    cylinder
    {
        type            nutkWallFunction;
        value           uniform 0;
    }
    walls { type symmetry; }
    front { type empty; }
    back { type empty; }
}