/*--------------------------------*- C++ -*----------------------------------*\
| =========                 |                                                 |
| \\      /  F ield         | OpenFOAM: The Open Source CFD Toolbox           |
|  \\    /   O peration     | Version:  2512                                  |
|   \\  /    A nd           | Website:  www.openfoam.com                      |
|    \\/     M anipulation  |                                                 |
\*---------------------------------------------------------------------------*/
FoamFile
{
    version     2.0;
    format      ascii;
    arch        "LSB;label=32;scalar=64";
    class       polyBoundaryMesh;
    location    "constant/polyMesh";
    object      boundary;
}
// * * * * * * * * * * * * * * * * * * * * * * * * * * * * * * * * * * * * * //

5
(
    inlet
    {
        type            patch;
        nFaces          40;
        startFace       33038;
    }
    outlet
    {
        type            patch;
        nFaces          40;
        startFace       33078;
    }
    walls
    {
        type            wall;
        inGroups        1(wall);
        nFaces          200;
        startFace       33118;
    }
    frontAndBack
    {
        type            empty;
        inGroups        1(empty);
        nFaces          16296;
        startFace       33318;
    }
    cylinder
    {
        type            wall;
        inGroups        1(wall);
        nFaces          48;
        startFace       49614;
    }
)

// ************************************************************************* //
