FoamFile { version 2.0; format ascii; class dictionary; object blockMeshDict; }

// cube points (1mx1mx0.1m)
vertices (
    (0 0 0)  // 0
    (1 0 0)  // 1
    (1 1 0)  // 2
    (0 1 0)  // 3
    (0 0 0.1)// 4
    (1 0 0.1)// 5
    (1 1 0.1)// 6
    (0 1 0.1)// 7
);

// Mesh size and cell number (100x100x1) with simple grading 
// 2D => 1 cell in z
blocks (
    hex (0 1 2 3 4 5 6 7) (100 100 1) simpleGrading (0.2 0.2 1)
    // simple grading with ratio 0.2 in x and y to have finer mesh near the walls (boundary layers)
);

edges ();


// boundaries definition
boundary
(
    inlet
    {
        type patch; // classic inlet/outlet patch
        faces
        (
            (0 3 7 4) // Face at x = 0
        );
    }
    outlet
    {
        type patch;
        faces
        (
            (1 5 6 2) // Face at x = 1
        );
    }
    sides
    {
        type wall; 
        faces
        (
            (0 1 5 4) // Lower face (y = 0)
            (3 2 6 7) // Higher face (y = 1)
        );
    }
    frontAndBack
    {
        type empty; // critical for 2D in OpenFOAM
        faces
        (
            (0 1 2 3) // Front face (z = 0)
            (4 5 6 7) // Back face (z = 0.1)
        );
    }
);