/*--------------------------------*- C++ -*----------------------------------*\
| =========                 |                                                 |
| \\      /  F ield         | OpenFOAM: The Open Source CFD Toolbox           |
|  \\    /   O peration     | Version:  2512                                  |
|   \\  /    A nd           | Website:  www.openfoam.com                      |
|    \\/     M anipulation  |                                                 |
\*---------------------------------------------------------------------------*/
FoamFile
{
    version     2.0;
    format      ascii;
    arch        "LSB;label=32;scalar=64";
    class       featureEdgeMesh;
    location    "constant/triSurface";
    object      cylindre.eMesh;
}
// * * * * * * * * * * * * * * * * * * * * * * * * * * * * * * * * * * * * * //


// points:

210
(
(-0.1 -1.22465e-17 0.1)
(-0.099821 0.00598042 0.1)
(-0.099821 0.00598042 0)
(-0.1 -1.22465e-17 0)
(-0.099821 -0.00598042 0.1)
(-0.099821 -0.00598042 0)
(-0.0992847 -0.0119394 0.1)
(-0.0992847 -0.0119394 0)
(-0.098393 -0.0178557 0.1)
(-0.098393 -0.0178557 0)
(-0.097149 -0.023708 0.1)
(-0.097149 -0.023708 0)
(-0.0955573 -0.0294755 0.1)
(-0.0955573 -0.0294755 0)
(-0.0936235 -0.0351375 0.1)
(-0.0936235 -0.0351375 0)
(-0.0913545 -0.0406737 0.1)
(-0.0913545 -0.0406737 0)
(-0.0887586 -0.0460642 0.1)
(-0.0887586 -0.0460642 0)
(-0.0858449 -0.0512899 0.1)
(-0.0858449 -0.0512899 0)
(-0.0826239 -0.056332 0.1)
(-0.0826239 -0.056332 0)
(-0.0791071 -0.0611724 0.1)
(-0.0791071 -0.0611724 0)
(-0.0753071 -0.0657939 0.1)
(-0.0753071 -0.0657939 0)
(-0.0712376 -0.0701798 0.1)
(-0.0712376 -0.0701798 0)
(-0.0669131 -0.0743145 0.1)
(-0.0669131 -0.0743145 0)
(-0.062349 -0.0781832 0.1)
(-0.062349 -0.0781832 0)
(-0.0575617 -0.0817719 0.1)
(-0.0575617 -0.0817719 0)
(-0.0525684 -0.085068 0.1)
(-0.0525684 -0.085068 0)
(-0.0473869 -0.0880596 0.1)
(-0.0473869 -0.0880596 0)
(-0.0420357 -0.0907359 0.1)
(-0.0420357 -0.0907359 0)
(-0.0365341 -0.0930874 0.1)
(-0.0365341 -0.0930874 0)
(-0.0309017 -0.0951057 0.1)
(-0.0309017 -0.0951057 0)
(-0.0251587 -0.0967835 0.1)
(-0.0251587 -0.0967835 0)
(-0.0193256 -0.0981148 0.1)
(-0.0193256 -0.0981148 0)
(-0.0134233 -0.099095 0.1)
(-0.0134233 -0.099095 0)
(-0.00747301 -0.0997204 0.1)
(-0.00747301 -0.0997204 0)
(-0.00149594 -0.0999888 0.1)
(-0.00149594 -0.0999888 0)
(0.00448648 -0.0998993 0.1)
(0.00448648 -0.0998993 0)
(0.0104528 -0.0994522 0.1)
(0.0104528 -0.0994522 0)
(0.0163818 -0.0986491 0.1)
(0.0163818 -0.0986491 0)
(0.0222521 -0.0974928 0.1)
(0.0222521 -0.0974928 0)
(0.0280427 -0.0959875 0.1)
(0.0280427 -0.0959875 0)
(0.033733 -0.0941386 0.1)
(0.033733 -0.0941386 0)
(0.0393025 -0.0919528 0.1)
(0.0393025 -0.0919528 0)
(0.0447313 -0.0894377 0.1)
(0.0447313 -0.0894377 0)
(0.05 -0.0866025 0.1)
(0.05 -0.0866025 0)
(0.0550897 -0.0834573 0.1)
(0.0550897 -0.0834573 0)
(0.0599822 -0.0800134 0.1)
(0.0599822 -0.0800134 0)
(0.06466 -0.076283 0.1)
(0.06466 -0.076283 0)
(0.0691063 -0.0722795 0.1)
(0.0691063 -0.0722795 0)
(0.0733052 -0.0680173 0.1)
(0.0733052 -0.0680173 0)
(0.0772417 -0.0635116 0.1)
(0.0772417 -0.0635116 0)
(0.0809017 -0.0587785 0.1)
(0.0809017 -0.0587785 0)
(0.0842721 -0.0538351 0.1)
(0.0842721 -0.0538351 0)
(0.0873408 -0.0486989 0.1)
(0.0873408 -0.0486989 0)
(0.0900969 -0.0433884 0.1)
(0.0900969 -0.0433884 0)
(0.0925304 -0.0379225 0.1)
(0.0925304 -0.0379225 0)
(0.0946327 -0.032321 0.1)
(0.0946327 -0.032321 0)
(0.0963963 -0.0266037 0.1)
(0.0963963 -0.0266037 0)
(0.0978148 -0.0207912 0.1)
(0.0978148 -0.0207912 0)
(0.0988831 -0.0149042 0.1)
(0.0988831 -0.0149042 0)
(0.0995974 -0.00896393 0.1)
(0.0995974 -0.00896393 0)
(0.0999552 -0.00299155 0.1)
(0.0999552 -0.00299155 0)
(0.0999552 0.00299155 0.1)
(0.0999552 0.00299155 0)
(0.0995974 0.00896393 0.1)
(0.0995974 0.00896393 0)
(0.0988831 0.0149042 0.1)
(0.0988831 0.0149042 0)
(0.0978148 0.0207912 0.1)
(0.0978148 0.0207912 0)
(0.0963963 0.0266037 0.1)
(0.0963963 0.0266037 0)
(0.0946327 0.032321 0.1)
(0.0946327 0.032321 0)
(0.0925304 0.0379225 0.1)
(0.0925304 0.0379225 0)
(0.0900969 0.0433884 0.1)
(0.0900969 0.0433884 0)
(0.0873408 0.0486989 0.1)
(0.0873408 0.0486989 0)
(0.0842721 0.0538351 0.1)
(0.0842721 0.0538351 0)
(0.0809017 0.0587785 0.1)
(0.0809017 0.0587785 0)
(0.0772417 0.0635116 0.1)
(0.0772417 0.0635116 0)
(0.0733052 0.0680173 0.1)
(0.0733052 0.0680173 0)
(0.0691063 0.0722795 0.1)
(0.0691063 0.0722795 0)
(0.06466 0.076283 0.1)
(0.06466 0.076283 0)
(0.0599822 0.0800134 0.1)
(0.0599822 0.0800134 0)
(0.0550897 0.0834573 0.1)
(0.0550897 0.0834573 0)
(0.05 0.0866025 0.1)
(0.05 0.0866025 0)
(0.0447313 0.0894377 0.1)
(0.0447313 0.0894377 0)
(0.0393025 0.0919528 0.1)
(0.0393025 0.0919528 0)
(0.033733 0.0941386 0.1)
(0.033733 0.0941386 0)
(0.0280427 0.0959875 0.1)
(0.0280427 0.0959875 0)
(0.0222521 0.0974928 0.1)
(0.0222521 0.0974928 0)
(0.0163818 0.0986491 0.1)
(0.0163818 0.0986491 0)
(0.0104528 0.0994522 0.1)
(0.0104528 0.0994522 0)
(0.00448648 0.0998993 0.1)
(0.00448648 0.0998993 0)
(-0.00149594 0.0999888 0.1)
(-0.00149594 0.0999888 0)
(-0.00747301 0.0997204 0.1)
(-0.00747301 0.0997204 0)
(-0.0134233 0.099095 0.1)
(-0.0134233 0.099095 0)
(-0.0193256 0.0981148 0.1)
(-0.0193256 0.0981148 0)
(-0.0251587 0.0967835 0.1)
(-0.0251587 0.0967835 0)
(-0.0309017 0.0951057 0.1)
(-0.0309017 0.0951057 0)
(-0.0365341 0.0930874 0.1)
(-0.0365341 0.0930874 0)
(-0.0420357 0.0907359 0.1)
(-0.0420357 0.0907359 0)
(-0.0473869 0.0880596 0.1)
(-0.0473869 0.0880596 0)
(-0.0525684 0.085068 0.1)
(-0.0525684 0.085068 0)
(-0.0575617 0.0817719 0.1)
(-0.0575617 0.0817719 0)
(-0.062349 0.0781832 0.1)
(-0.062349 0.0781832 0)
(-0.0669131 0.0743145 0.1)
(-0.0669131 0.0743145 0)
(-0.0712376 0.0701798 0.1)
(-0.0712376 0.0701798 0)
(-0.0753071 0.0657939 0.1)
(-0.0753071 0.0657939 0)
(-0.0791071 0.0611724 0.1)
(-0.0791071 0.0611724 0)
(-0.0826239 0.056332 0.1)
(-0.0826239 0.056332 0)
(-0.0858449 0.0512899 0.1)
(-0.0858449 0.0512899 0)
(-0.0887586 0.0460642 0.1)
(-0.0887586 0.0460642 0)
(-0.0913545 0.0406737 0.1)
(-0.0913545 0.0406737 0)
(-0.0936235 0.0351375 0.1)
(-0.0936235 0.0351375 0)
(-0.0955573 0.0294755 0.1)
(-0.0955573 0.0294755 0)
(-0.097149 0.023708 0.1)
(-0.097149 0.023708 0)
(-0.098393 0.0178557 0.1)
(-0.098393 0.0178557 0)
(-0.0992847 0.0119394 0.1)
(-0.0992847 0.0119394 0)
)


// edges:

210
(
(0 1)
(2 3)
(4 0)
(3 5)
(6 4)
(5 7)
(8 6)
(7 9)
(10 8)
(9 11)
(12 10)
(11 13)
(14 12)
(13 15)
(16 14)
(15 17)
(18 16)
(17 19)
(20 18)
(19 21)
(22 20)
(21 23)
(24 22)
(23 25)
(26 24)
(25 27)
(28 26)
(27 29)
(30 28)
(29 31)
(32 30)
(31 33)
(34 32)
(33 35)
(36 34)
(35 37)
(38 36)
(37 39)
(40 38)
(39 41)
(42 40)
(41 43)
(44 42)
(43 45)
(46 44)
(45 47)
(48 46)
(47 49)
(50 48)
(49 51)
(52 50)
(51 53)
(54 52)
(53 55)
(56 54)
(55 57)
(58 56)
(57 59)
(60 58)
(59 61)
(62 60)
(61 63)
(64 62)
(63 65)
(66 64)
(65 67)
(68 66)
(67 69)
(70 68)
(69 71)
(72 70)
(71 73)
(74 72)
(73 75)
(76 74)
(75 77)
(78 76)
(77 79)
(80 78)
(79 81)
(82 80)
(81 83)
(84 82)
(83 85)
(86 84)
(85 87)
(88 86)
(87 89)
(90 88)
(89 91)
(92 90)
(91 93)
(94 92)
(93 95)
(96 94)
(95 97)
(98 96)
(97 99)
(100 98)
(99 101)
(102 100)
(101 103)
(104 102)
(103 105)
(106 104)
(105 107)
(108 106)
(107 109)
(110 108)
(109 111)
(112 110)
(111 113)
(114 112)
(113 115)
(116 114)
(115 117)
(118 116)
(117 119)
(120 118)
(119 121)
(122 120)
(121 123)
(124 122)
(123 125)
(126 124)
(125 127)
(128 126)
(127 129)
(130 128)
(129 131)
(132 130)
(131 133)
(134 132)
(133 135)
(136 134)
(135 137)
(138 136)
(137 139)
(140 138)
(139 141)
(142 140)
(141 143)
(144 142)
(143 145)
(146 144)
(145 147)
(148 146)
(147 149)
(150 148)
(149 151)
(152 150)
(151 153)
(154 152)
(153 155)
(156 154)
(155 157)
(158 156)
(157 159)
(160 158)
(159 161)
(162 160)
(161 163)
(164 162)
(163 165)
(166 164)
(165 167)
(168 166)
(167 169)
(170 168)
(169 171)
(172 170)
(171 173)
(174 172)
(173 175)
(176 174)
(175 177)
(178 176)
(177 179)
(180 178)
(179 181)
(182 180)
(181 183)
(184 182)
(183 185)
(186 184)
(185 187)
(188 186)
(187 189)
(190 188)
(189 191)
(192 190)
(191 193)
(194 192)
(193 195)
(196 194)
(195 197)
(198 196)
(197 199)
(200 198)
(199 201)
(202 200)
(201 203)
(204 202)
(203 205)
(206 204)
(205 207)
(208 206)
(207 209)
(1 208)
(209 2)
)

// * * * * * * * * * * * * * * * * * * * * * * * * * * * * * * * * * * * * * //


// ************************************************************************* //
